Circuit: * C:\Users\Juergen Belz\Documents\Arduino\SoilMeasurement\soil_measurement_sketch\SoilMeasurement_v1.asc

Direct Newton iteration for .op point succeeded.

Date: Tue Jan 09 09:22:30 2018
Total elapsed time: 0.078 seconds.

tnom = 27
temp = 27
method = modified trap
totiter = 2085
traniter = 2082
tranpoints = 1042
accept = 1042
rejected = 0
matrix size = 4
fillins = 0
solver = Normal
Matrix Compiler1: 100 bytes object code size  0.0/0.0/[0.0]
Matrix Compiler2: 248 bytes object code size  0.0/0.1/[0.0]

